feeders/PNNL_R3-12.47-1.glm
// $Id: R3-12.47-1.glm 
// 12.47 kV feeder 
//********************************************* 
clock{ 
     timezone EST+5EDT; 
     timestamp '2000-01-01 0:00:00'; 
     stoptime '2000-01-01 1:00:00'; 

} 

#set profiler=1 
//********************************************* 
// modules 
module tape; 
module powerflow{ 
     solver_method NR; 
      default_maximum_voltage_error 1e-6;
}; 

//********************************************* 
object regulator:3653 { 
     name R3-12-47-1_reg_1; 
     from R3-12-47-1_node_634; 
     to R3-12-47-1_meter_65; 
     phases ABCN; 
     configuration feeder_reg_cfg; 
} 

object regulator_configuration:3654 { 
     name feeder_reg_cfg; 
     Control MANUAL; 
     band_center 7500.0; 
     band_width 120; 
     connect_type WYE_WYE; 
     time_delay 30; 
     raise_taps 16; 
     lower_taps 16; 
     regulation 0.10; 
     tap_pos_A 0; 
     tap_pos_B 0; 
     tap_pos_C 0; 
} 

object capacitor:3651 { 
     name R3-12-47-1_cap_1; 
     phases ABCN; 
     pt_phase A; 
     parent R3-12-47-1_node_238; 
     phases_connected ABC; 
     control MANUAL; 
     voltage_set_high 7300; 
     voltage_set_low 7100; 
     capacitor_A 0.4 MVAr; 
     capacitor_B 0.4 MVAr; 
     capacitor_C 0.4 MVAr; 
     control_level INDIVIDUAL; 
     time_delay 30.0; 
     dwell_time 30.0; 
     cap_nominal_voltage 7200; 
     nominal_voltage 7200; 
} 

object fuse:3559 { 
     name R3-12-47-1_fuse_1; 
     phases ABCN; 
     from R3-12-47-1_node_6; 
     to R3-12-47-1_node_14; 
     current_limit 50000;// 150; 
     status CLOSED; 
} 

object fuse:3560 { 
     name R3-12-47-1_fuse_2; 
     phases ABCN; 
     from R3-12-47-1_node_16; 
     to R3-12-47-1_node_19; 
     current_limit 50000;// 80; 
     status CLOSED; 
} 

object fuse:3561 { 
     name R3-12-47-1_fuse_3; 
     phases ABCN; 
     from R3-12-47-1_node_25; 
     to R3-12-47-1_node_26; 
     current_limit 50000;// 30; 
     status CLOSED; 
} 

object fuse:3562 { 
     name R3-12-47-1_fuse_4; 
     phases ABCN; 
     from R3-12-47-1_node_38; 
     to R3-12-47-1_node_39; 
     current_limit 50000;// 80; 
     status CLOSED; 
} 

object fuse:3563 { 
     name R3-12-47-1_fuse_5; 
     phases ABCN; 
     from R3-12-47-1_node_53; 
     to R3-12-47-1_node_54; 
     current_limit 50000;// 80; 
     status CLOSED; 
} 

object fuse:3564 { 
     name R3-12-47-1_fuse_6; 
     phases ABCN; 
     from R3-12-47-1_node_69; 
     to R3-12-47-1_node_70; 
     current_limit 50000;// 150; 
     status CLOSED; 
} 

object fuse:3565 { 
     name R3-12-47-1_fuse_7; 
     phases ABN; 
     from R3-12-47-1_node_92; 
     to R3-12-47-1_node_93; 
     current_limit 50000;// 30; 
     status CLOSED; 
} 

object fuse:3566 { 
     name R3-12-47-1_fuse_8; 
     phases ABN; 
     from R3-12-47-1_node_98; 
     to R3-12-47-1_node_99; 
     current_limit 50000;// 30; 
     status CLOSED; 
} 

object fuse:3567 { 
     name R3-12-47-1_fuse_9; 
     phases ABCN; 
     from R3-12-47-1_node_103; 
     to R3-12-47-1_node_104; 
     current_limit 50000;// 30; 
     status CLOSED; 
} 

object fuse:3568 { 
     name R3-12-47-1_fuse_10; 
     phases ABCN; 
     from R3-12-47-1_node_112; 
     to R3-12-47-1_node_113; 
     current_limit 50000;// 100; 
     status CLOSED; 
} 

object fuse:3569 { 
     name R3-12-47-1_fuse_11; 
     phases ABCN; 
     from R3-12-47-1_node_122; 
     to R3-12-47-1_node_123; 
     current_limit 50000;// 100; 
     status CLOSED; 
} 

object fuse:3570 { 
     name R3-12-47-1_fuse_12; 
     phases ABCN; 
     from R3-12-47-1_node_126; 
     to R3-12-47-1_node_127; 
     current_limit 50000;// 75; 
     status CLOSED; 
} 

object fuse:3571 { 
     name R3-12-47-1_fuse_13; 
     phases ABCN; 
     from R3-12-47-1_node_129; 
     to R3-12-47-1_node_130; 
     current_limit 50000;// 20; 
     status CLOSED; 
} 

object fuse:3572 { 
     name R3-12-47-1_fuse_14; 
     phases ABCN; 
     from R3-12-47-1_node_153; 
     to R3-12-47-1_node_154; 
     current_limit 50000;// 50; 
     status CLOSED; 
} 

object fuse:3573 { 
     name R3-12-47-1_fuse_15; 
     phases ABCN; 
     from R3-12-47-1_node_155; 
     to R3-12-47-1_node_156; 
     current_limit 50000;// 150; 
     status CLOSED; 
} 

object fuse:3574 { 
     name R3-12-47-1_fuse_16; 
     phases ABCN; 
     from R3-12-47-1_node_166; 
     to R3-12-47-1_node_167; 
     current_limit 50000;// 150; 
     status CLOSED; 
} 

object fuse:3575 { 
     name R3-12-47-1_fuse_17; 
     phases ABCN; 
     from R3-12-47-1_node_198; 
     to R3-12-47-1_node_199; 
     current_limit 50000;// 150; 
     status CLOSED; 
} 

object fuse:3576 { 
     name R3-12-47-1_fuse_18; 
     phases ABCN; 
     from R3-12-47-1_node_212; 
     to R3-12-47-1_node_213; 
     current_limit 50000;// 30; 
     status CLOSED; 
} 

object fuse:3577 { 
     name R3-12-47-1_fuse_19; 
     phases ABCN; 
     from R3-12-47-1_node_235; 
     to R3-12-47-1_node_237; 
     current_limit 50000;// 15; 
     status CLOSED; 
} 

object fuse:3578 { 
     name R3-12-47-1_fuse_20; 
     phases ABCN; 
     from R3-12-47-1_node_239; 
     to R3-12-47-1_node_240; 
     current_limit 50000;// 30; 
     status CLOSED; 
} 

object fuse:3579 { 
     name R3-12-47-1_fuse_21; 
     phases ABN; 
     from R3-12-47-1_node_248; 
     to R3-12-47-1_node_249; 
     current_limit 50000;// 80; 
     status CLOSED; 
} 

object fuse:3580 { 
     name R3-12-47-1_fuse_22; 
     phases ABCN; 
     from R3-12-47-1_node_257; 
     to R3-12-47-1_node_258; 
     current_limit 50000;// 100; 
     status CLOSED; 
} 

object fuse:3581 { 
     name R3-12-47-1_fuse_23; 
     phases ABCN; 
     from R3-12-47-1_node_265; 
     to R3-12-47-1_node_266; 
     current_limit 50000;// 50; 
     status CLOSED; 
} 

object fuse:3582 { 
     name R3-12-47-1_fuse_24; 
     phases ACN; 
     from R3-12-47-1_node_281; 
     to R3-12-47-1_node_282; 
     current_limit 50000;// 10; 
     status CLOSED; 
} 

object fuse:3583 { 
     name R3-12-47-1_fuse_25; 
     phases BCN; 
     from R3-12-47-1_node_287; 
     to R3-12-47-1_node_288; 
     current_limit 50000;// 10; 
     status CLOSED; 
} 

object fuse:3584 { 
     name R3-12-47-1_fuse_26; 
     phases ABCN; 
     from R3-12-47-1_node_295; 
     to R3-12-47-1_node_296; 
     current_limit 50000;// 10; 
     status CLOSED; 
} 

object fuse:3585 { 
     name R3-12-47-1_fuse_27; 
     phases ABCN; 
     from R3-12-47-1_node_303; 
     to R3-12-47-1_node_304; 
     current_limit 50000;// 300; 
     status CLOSED; 
} 

object fuse:3586 { 
     name R3-12-47-1_fuse_28; 
     phases ABN; 
     from R3-12-47-1_node_318; 
     to R3-12-47-1_node_319; 
     current_limit 50000;// 15; 
     status CLOSED; 
} 

object fuse:3587 { 
     name R3-12-47-1_fuse_29; 
     phases ABCN; 
     from R3-12-47-1_node_340; 
     to R3-12-47-1_node_341; 
     current_limit 50000;// 18; 
     status CLOSED; 
} 

object fuse:3588 { 
     name R3-12-47-1_fuse_30; 
     phases ABCN; 
     from R3-12-47-1_node_342; 
     to R3-12-47-1_node_343; 
     current_limit 50000;// 18; 
     status CLOSED; 
} 

object fuse:3589 { 
     name R3-12-47-1_fuse_31; 
     phases ABCN; 
     from R3-12-47-1_node_342; 
     to R3-12-47-1_node_344; 
     current_limit 50000;// 18; 
     status CLOSED; 
} 

object fuse:3590 { 
     name R3-12-47-1_fuse_32; 
     phases ABCN; 
     from R3-12-47-1_node_347; 
     to R3-12-47-1_node_348; 
     current_limit 50000;// 18; 
     status CLOSED; 
} 

object fuse:3591 { 
     name R3-12-47-1_fuse_33; 
     phases ABCN; 
     from R3-12-47-1_node_347; 
     to R3-12-47-1_node_349; 
     current_limit 50000;// 18; 
     status CLOSED; 
} 

object fuse:3592 { 
     name R3-12-47-1_fuse_34; 
     phases ABCN; 
     from R3-12-47-1_node_353; 
     to R3-12-47-1_node_354; 
     current_limit 50000;// 300; 
     status CLOSED; 
} 

object fuse:3593 { 
     name R3-12-47-1_fuse_35; 
     phases ABCN; 
     from R3-12-47-1_node_356; 
     to R3-12-47-1_node_357; 
     current_limit 50000;// 300; 
     status CLOSED; 
} 

object fuse:3594 { 
     name R3-12-47-1_fuse_36; 
     phases ABCN; 
     from R3-12-47-1_node_362; 
     to R3-12-47-1_node_363; 
     current_limit 50000;// 30; 
     status CLOSED; 
} 

object fuse:3595 { 
     name R3-12-47-1_fuse_37; 
     phases ABCN; 
     from R3-12-47-1_node_409; 
     to R3-12-47-1_node_410; 
     current_limit 50000;// 125; 
     status CLOSED; 
} 

object fuse:3596 { 
     name R3-12-47-1_fuse_38; 
     phases ACN; 
     from R3-12-47-1_node_428; 
     to R3-12-47-1_node_429; 
     current_limit 50000;// 20; 
     status CLOSED; 
} 

object fuse:3597 { 
     name R3-12-47-1_fuse_39; 
     phases ABCN; 
     from R3-12-47-1_node_432; 
     to R3-12-47-1_node_433; 
     current_limit 50000;// 30; 
     status CLOSED; 
} 

object fuse:3598 { 
     name R3-12-47-1_fuse_40; 
     phases ABCN; 
     from R3-12-47-1_node_439; 
     to R3-12-47-1_node_440; 
     current_limit 50000;// 80; 
     status CLOSED; 
} 

object fuse:3599 { 
     name R3-12-47-1_fuse_41; 
     phases ACN; 
     from R3-12-47-1_node_447; 
     to R3-12-47-1_node_448; 
     current_limit 50000;// 30; 
     status CLOSED; 
} 

object fuse:3600 { 
     name R3-12-47-1_fuse_42; 
     phases ACN; 
     from R3-12-47-1_node_459; 
     to R3-12-47-1_node_460; 
     current_limit 50000;// 40; 
     status CLOSED; 
} 

object fuse:3601 { 
     name R3-12-47-1_fuse_43; 
     phases ABCN; 
     from R3-12-47-1_node_393; 
     to R3-12-47-1_node_493; 
     current_limit 50000;// 140; 
     status CLOSED; 
} 

object fuse:3602 { 
     name R3-12-47-1_fuse_44; 
     phases ABCN; 
     from R3-12-47-1_node_499; 
     to R3-12-47-1_node_500; 
     current_limit 50000;// 150; 
     status CLOSED; 
} 

object fuse:3603 { 
     name R3-12-47-1_fuse_45; 
     phases ABCN; 
     from R3-12-47-1_node_513; 
     to R3-12-47-1_node_514; 
     current_limit 50000;// 150; 
     status CLOSED; 
} 

object fuse:3604 { 
     name R3-12-47-1_fuse_46; 
     phases ABCN; 
     from R3-12-47-1_node_523; 
     to R3-12-47-1_node_525; 
     current_limit 50000;// 30; 
     status CLOSED; 
} 

object fuse:3605 { 
     name R3-12-47-1_fuse_47; 
     phases ABN; 
     from R3-12-47-1_node_527; 
     to R3-12-47-1_node_528; 
     current_limit 50000;// 30; 
     status CLOSED; 
} 

object fuse:3606 { 
     name R3-12-47-1_fuse_48; 
     phases ABCN; 
     from R3-12-47-1_node_530; 
     to R3-12-47-1_node_531; 
     current_limit 50000;// 100; 
     status CLOSED; 
} 

object fuse:3607 { 
     name R3-12-47-1_fuse_49; 
     phases ABCN; 
     from R3-12-47-1_node_534; 
     to R3-12-47-1_node_535; 
     current_limit 50000;// 30; 
     status CLOSED; 
} 

object fuse:3608 { 
     name R3-12-47-1_fuse_50; 
     phases ABCN; 
     from R3-12-47-1_node_537; 
     to R3-12-47-1_node_538; 
     current_limit 50000;// 10; 
     status CLOSED; 
} 

object fuse:3609 { 
     name R3-12-47-1_fuse_51; 
     phases ABCN; 
     from R3-12-47-1_node_387; 
     to R3-12-47-1_node_542; 
     current_limit 50000;// 150; 
     status CLOSED; 
} 

object fuse:3610 { 
     name R3-12-47-1_fuse_52; 
     phases ABCN; 
     from R3-12-47-1_node_545; 
     to R3-12-47-1_node_546; 
     current_limit 50000;// 100; 
     status CLOSED; 
} 

object fuse:3611 { 
     name R3-12-47-1_fuse_53; 
     phases ABCN; 
     from R3-12-47-1_node_566; 
     to R3-12-47-1_node_569; 
     current_limit 50000;// 80; 
     status CLOSED; 
} 

object fuse:3612 { 
     name R3-12-47-1_fuse_54; 
     phases ABCN; 
     from R3-12-47-1_node_574; 
     to R3-12-47-1_node_576; 
     current_limit 50000;// 15; 
     status CLOSED; 
} 

object fuse:3613 { 
     name R3-12-47-1_fuse_55; 
     phases ABCN; 
     from R3-12-47-1_node_580; 
     to R3-12-47-1_node_581; 
     current_limit 50000;// 150; 
     status CLOSED; 
} 

object fuse:3614 { 
     name R3-12-47-1_fuse_56; 
     phases ABCN; 
     from R3-12-47-1_node_586; 
     to R3-12-47-1_node_587; 
     current_limit 50000;// 80; 
     status CLOSED; 
} 

object fuse:3615 { 
     name R3-12-47-1_fuse_57; 
     phases ABCN; 
     from R3-12-47-1_node_589; 
     to R3-12-47-1_node_590; 
     current_limit 50000;// 150; 
     status CLOSED; 
} 

object fuse:3616 { 
     name R3-12-47-1_fuse_58; 
     phases ABCN; 
     from R3-12-47-1_node_596; 
     to R3-12-47-1_node_597; 
     current_limit 50000;// 150; 
     status CLOSED; 
} 

object fuse:3617 { 
     name R3-12-47-1_fuse_59; 
     phases ABCN; 
     from R3-12-47-1_node_543; 
     to R3-12-47-1_node_611; 
     current_limit 50000;// 10; 
     status CLOSED; 
} 

object fuse:3618 { 
     name R3-12-47-1_fuse_60; 
     phases ABCN; 
     from R3-12-47-1_node_614; 
     to R3-12-47-1_node_615; 
     current_limit 50000;// 80; 
     status CLOSED; 
} 

object fuse:3619 { 
     name R3-12-47-1_fuse_61; 
     phases ABCN; 
     from R3-12-47-1_node_623; 
     to R3-12-47-1_node_632; 
     current_limit 50000;// 150; 
     status CLOSED; 
} 

object line_configuration:24 { 
     conductor_A overhead_line_conductor:2; 
     conductor_B overhead_line_conductor:2; 
     conductor_C overhead_line_conductor:2; 
     conductor_N overhead_line_conductor:2; 
     spacing line_spacing:17; 
} 

object line_configuration:25 { 
     conductor_A overhead_line_conductor:2; 
     conductor_B overhead_line_conductor:2; 
     conductor_N overhead_line_conductor:2; 
     spacing line_spacing:18; 
} 

object line_configuration:26 { 
     conductor_B overhead_line_conductor:2; 
     conductor_C overhead_line_conductor:2; 
     conductor_N overhead_line_conductor:2; 
     spacing line_spacing:19; 
} 

object line_configuration:27 { 
     conductor_A underground_line_conductor:3; 
     conductor_B underground_line_conductor:3; 
     conductor_C underground_line_conductor:3; 
     conductor_N underground_line_conductor:3; 
     spacing line_spacing:17; 
} 

object line_configuration:28 { 
     conductor_A overhead_line_conductor:4; 
     conductor_C overhead_line_conductor:4; 
     conductor_N overhead_line_conductor:4; 
     spacing line_spacing:20; 
} 

object line_configuration:29 { 
     conductor_A underground_line_conductor:5; 
     conductor_C underground_line_conductor:5; 
     conductor_N underground_line_conductor:5; 
     spacing line_spacing:20; 
} 

object line_configuration:30 { 
     conductor_B underground_line_conductor:3; 
     conductor_C underground_line_conductor:3; 
     conductor_N underground_line_conductor:3; 
     spacing line_spacing:19; 
} 

object line_configuration:31 { 
     conductor_A underground_line_conductor:5; 
     conductor_B underground_line_conductor:5; 
     conductor_C underground_line_conductor:5; 
     conductor_N underground_line_conductor:5; 
     spacing line_spacing:17; 
} 

object line_configuration:32 { 
     conductor_A underground_line_conductor:3; 
     conductor_C underground_line_conductor:3; 
     conductor_N underground_line_conductor:3; 
     spacing line_spacing:20; 
} 

object line_configuration:33 { 
     conductor_A overhead_line_conductor:6; 
     conductor_C overhead_line_conductor:6; 
     conductor_N overhead_line_conductor:6; 
     spacing line_spacing:20; 
} 

object line_configuration:34 { 
     conductor_A overhead_line_conductor:4; 
     conductor_N overhead_line_conductor:4; 
     spacing line_spacing:21; 
} 

object line_configuration:35 { 
     conductor_A overhead_line_conductor:7; 
     conductor_B overhead_line_conductor:7; 
     conductor_C overhead_line_conductor:7; 
     conductor_N overhead_line_conductor:7; 
     spacing line_spacing:17; 
} 

object line_configuration:36 { 
     conductor_A overhead_line_conductor:4; 
     conductor_B overhead_line_conductor:4; 
     conductor_C overhead_line_conductor:4; 
     conductor_N overhead_line_conductor:4; 
     spacing line_spacing:17; 
} 

object line_configuration:37 { 
     conductor_A underground_line_conductor:8; 
     conductor_B underground_line_conductor:8; 
     conductor_C underground_line_conductor:8; 
     conductor_N underground_line_conductor:8; 
     spacing line_spacing:17; 
} 

object line_configuration:38 { 
     conductor_B underground_line_conductor:3; 
     conductor_N underground_line_conductor:3; 
     spacing line_spacing:22; 
} 

object line_configuration:39 { 
     conductor_A underground_line_conductor:3; 
     conductor_N underground_line_conductor:3; 
     spacing line_spacing:21; 
} 

object line_configuration:40 { 
     conductor_A underground_line_conductor:3; 
     conductor_B underground_line_conductor:3; 
     conductor_N underground_line_conductor:3; 
     spacing line_spacing:18; 
} 

object line_configuration:41 { 
     conductor_C underground_line_conductor:3; 
     conductor_N underground_line_conductor:3; 
     spacing line_spacing:23; 
} 

object line_configuration:42 { 
     conductor_A overhead_line_conductor:9; 
     conductor_B overhead_line_conductor:9; 
     conductor_C overhead_line_conductor:9; 
     conductor_N overhead_line_conductor:9; 
     spacing line_spacing:17; 
} 

object line_configuration:43 { 
     conductor_B overhead_line_conductor:10; 
     conductor_N overhead_line_conductor:10; 
     spacing line_spacing:22; 
} 

object line_configuration:44 { 
     conductor_A overhead_line_conductor:2; 
     conductor_C overhead_line_conductor:2; 
     conductor_N overhead_line_conductor:2; 
     spacing line_spacing:20; 
} 

object line_configuration:45 { 
     conductor_A underground_line_conductor:5; 
     conductor_B underground_line_conductor:5; 
     conductor_N underground_line_conductor:5; 
     spacing line_spacing:18; 
} 

object line_configuration:46 { 
     conductor_B overhead_line_conductor:4; 
     conductor_C overhead_line_conductor:4; 
     conductor_N overhead_line_conductor:4; 
     spacing line_spacing:19; 
} 

object line_configuration:47 { 
     conductor_A underground_line_conductor:11; 
     conductor_B underground_line_conductor:11; 
     conductor_C underground_line_conductor:11; 
     conductor_N underground_line_conductor:11; 
     spacing line_spacing:17; 
} 

object line_configuration:48 { 
     conductor_A underground_line_conductor:12; 
     conductor_B underground_line_conductor:12; 
     conductor_C underground_line_conductor:12; 
     conductor_N underground_line_conductor:12; 
     spacing line_spacing:17; 
} 

object line_configuration:49 { 
     conductor_A underground_line_conductor:13; 
     conductor_B underground_line_conductor:13; 
     conductor_C underground_line_conductor:13; 
     conductor_N underground_line_conductor:13; 
     spacing line_spacing:17; 
} 

object line_configuration:50 { 
     conductor_A underground_line_conductor:14; 
     conductor_B underground_line_conductor:14; 
     conductor_C underground_line_conductor:14; 
     conductor_N underground_line_conductor:14; 
     spacing line_spacing:17; 
} 

object line_configuration:51 { 
     conductor_A underground_line_conductor:14; 
     conductor_B underground_line_conductor:14; 
     conductor_N underground_line_conductor:14; 
     spacing line_spacing:18; 
} 

object line_configuration:52 { 
     conductor_A overhead_line_conductor:4; 
     conductor_B overhead_line_conductor:4; 
     conductor_N overhead_line_conductor:4; 
     spacing line_spacing:18; 
} 

object line_configuration:53 { 
     conductor_A overhead_line_conductor:10; 
     conductor_B overhead_line_conductor:10; 
     conductor_C overhead_line_conductor:10; 
     conductor_N overhead_line_conductor:10; 
     spacing line_spacing:17; 
} 

object line_configuration:54 { 
     conductor_C overhead_line_conductor:4; 
     conductor_N overhead_line_conductor:4; 
     spacing line_spacing:23; 
} 

object line_configuration:55 { 
     conductor_C overhead_line_conductor:10; 
     conductor_N overhead_line_conductor:10; 
     spacing line_spacing:23; 
} 

object line_configuration:56 { 
     conductor_C overhead_line_conductor:2; 
     conductor_N overhead_line_conductor:2; 
     spacing line_spacing:23; 
} 

object line_configuration:57 { 
     conductor_A underground_line_conductor:14; 
     conductor_C underground_line_conductor:14; 
     conductor_N underground_line_conductor:14; 
     spacing line_spacing:20; 
} 

object line_configuration:58 { 
     conductor_A underground_line_conductor:5; 
     conductor_N underground_line_conductor:5; 
     spacing line_spacing:21; 
} 

object line_configuration:59 { 
     conductor_A overhead_line_conductor:9; 
     conductor_N overhead_line_conductor:9; 
     spacing line_spacing:21; 
} 

object line_configuration:60 { 
     conductor_A overhead_line_conductor:6; 
     conductor_B overhead_line_conductor:6; 
     conductor_C overhead_line_conductor:6; 
     conductor_N overhead_line_conductor:6; 
     spacing line_spacing:17; 
} 

object line_configuration:61 { 
     conductor_A overhead_line_conductor:15; 
     conductor_B overhead_line_conductor:15; 
     conductor_C overhead_line_conductor:15; 
     conductor_N overhead_line_conductor:15; 
     spacing line_spacing:17; 
} 

object line_configuration:62 { 
     conductor_B underground_line_conductor:5; 
     conductor_C underground_line_conductor:5; 
     conductor_N underground_line_conductor:5; 
     spacing line_spacing:19; 
} 

object line_configuration:63 { 
     conductor_A underground_line_conductor:16; 
     conductor_B underground_line_conductor:16; 
     conductor_C underground_line_conductor:16; 
     conductor_N underground_line_conductor:16; 
     spacing line_spacing:17; 
} 

object line_spacing:17 { 
     distance_AB 37.0 in; 
     distance_BC 37.0 in; 
     distance_AC 37.0 in; 
     distance_AN 37.0 in; 
     distance_BN 37.0 in; 
     distance_CN 37.0 in; 
} 

object line_spacing:18 { 
     distance_AB 37.0 in; 
     distance_AN 37.0 in; 
     distance_BN 37.0 in; 
} 

object line_spacing:19 { 
     distance_BC 37.0 in; 
     distance_BN 37.0 in; 
     distance_CN 37.0 in; 
} 

object line_spacing:20 { 
     distance_AC 37.0 in; 
     distance_AN 37.0 in; 
     distance_CN 37.0 in; 
} 

object line_spacing:21 { 
     distance_AN 37.0 in; 
} 

object line_spacing:22 { 
     distance_BN 37.0 in; 
} 

object line_spacing:23 { 
     distance_CN 37.0 in; 
} 

object load:697 { 
     name R3-12-47-1_load_1; 
     parent R3-12-47-1_meter_1; 
     phases ABCN; 
     constant_power_A 170000+105300j; 
     constant_power_B 170000+105300j; 
     constant_power_C 170000+105300j; 
     nominal_voltage 480; 
     load_class C; 
} 

object load:698 { 
     name R3-12-47-1_load_2; 
     parent R3-12-47-1_meter_2; 
     phases ABCN; 
     constant_power_A 35524.8816+21604.0747j; 
     constant_power_B 35524.8816+21604.0747j; 
     constant_power_C 35524.8816+21604.0747j; 
     nominal_voltage 480; 
     load_class C; 
} 

object load:699 { 
     name R3-12-47-1_load_3; 
     parent R3-12-47-1_meter_3; 
     phases ABCN; 
     constant_power_A 8870.8214+5394.6946j; 
     constant_power_B 8870.8214+5394.6946j; 
     constant_power_C 8870.8214+5394.6946j; 
     nominal_voltage 480; 
     load_class C; 
} 

object load:700 { 
     name R3-12-47-1_load_4; 
     parent R3-12-47-1_meter_4; 
     phases ABCN; 
     constant_power_A 8870.8214+5394.6946j; 
     constant_power_B 8870.8214+5394.6946j; 
     constant_power_C 8870.8214+5394.6946j; 
     nominal_voltage 480; 
     load_class C; 
} 

object load:701 { 
     name R3-12-47-1_load_5; 
     parent R3-12-47-1_meter_5; 
     phases ABCN; 
     constant_power_A 8870.8214+5394.6946j; 
     constant_power_B 8870.8214+5394.6946j; 
     constant_power_C 8870.8214+5394.6946j; 
     nominal_voltage 480; 
     load_class C; 
} 

object load:702 { 
     name R3-12-47-1_load_6; 
     parent R3-12-47-1_meter_6; 
     phases ABCN; 
     constant_power_A 41000+25400j; 
     constant_power_B 41000+25400j; 
     constant_power_C 41000+25400j; 
     nominal_voltage 480; 
     load_class C; 
} 

object load:703 { 
     name R3-12-47-1_load_7; 
     parent R3-12-47-1_meter_7; 
     phases ABCN; 
     constant_power_A 201700+125000j; 
     constant_power_B 201700+125000j; 
     constant_power_C 201700+125000j; 
     nominal_voltage 480; 
     load_class C; 
} 

object load:704 { 
     name R3-12-47-1_load_8; 
     parent R3-12-47-1_meter_8; 
     phases ABCN; 
     constant_power_A 35524.8816+21604.0747j; 
     constant_power_B 35524.8816+21604.0747j; 
     constant_power_C 35524.8816+21604.0747j; 
     nominal_voltage 480; 
     load_class C; 
} 

object load:705 { 
     name R3-12-47-1_load_9; 
     parent R3-12-47-1_meter_9; 
     phases ABCN; 
     constant_power_A 17753.0883+10796.3498j; 
     constant_power_B 17753.0883+10796.3498j; 
     constant_power_C 17753.0883+10796.3498j; 
     nominal_voltage 480; 
     load_class C; 
} 

object load:706 { 
     name R3-12-47-1_load_10; 
     parent R3-12-47-1_meter_10; 
     phases ABCN; 
     constant_power_A 26654.0815+16209.393j; 
     constant_power_B 26654.0815+16209.393j; 
     constant_power_C 26654.0815+16209.393j; 
     nominal_voltage 480; 
     load_class C; 
} 

object load:707 { 
     name R3-12-47-1_load_11; 
     parent R3-12-47-1_meter_11; 
     phases BCN; 
     constant_power_B 4435.4107+2697.3473j; 
     constant_power_C 4435.4107+2697.3473j; 
     nominal_voltage 480; 
     load_class C; 
} 

object load:708 { 
     name R3-12-47-1_load_12; 
     parent R3-12-47-1_meter_12; 
     phases ACN; 
     constant_power_A 4435.4107+2697.3473j; 
     constant_power_C 4435.4107+2697.3473j; 
     nominal_voltage 480; 
     load_class C; 
} 

object load:709 { 
     name R3-12-47-1_load_13; 
     parent R3-12-47-1_meter_13; 
     phases ABCN; 
     constant_power_A 35524.8816+21604.0747j; 
     constant_power_B 35524.8816+21604.0747j; 
     constant_power_C 35524.8816+21604.0747j; 
     nominal_voltage 480; 
     load_class C; 
} 

object load:710 { 
     name R3-12-47-1_load_14; 
     parent R3-12-47-1_meter_14; 
     phases ABCN; 
     constant_power_A 8870.8214+5394.6946j; 
     constant_power_B 8870.8214+5394.6946j; 
     constant_power_C 8870.8214+5394.6946j; 
     nominal_voltage 480; 
     load_class C; 
} 

object load:711 { 
     name R3-12-47-1_load_15; 
     parent R3-12-47-1_meter_15; 
     phases ABCN; 
     constant_power_A 26654.0815+16209.393j; 
     constant_power_B 26654.0815+16209.393j; 
     constant_power_C 26654.0815+16209.393j; 
     nominal_voltage 480; 
     load_class C; 
} 

object load:712 { 
     name R3-12-47-1_load_16; 
     parent R3-12-47-1_meter_16; 
     phases ABCN; 
     constant_power_A 17753.0883+10796.3498j; 
     constant_power_B 17753.0883+10796.3498j; 
     constant_power_C 17753.0883+10796.3498j; 
     nominal_voltage 480; 
     load_class C; 
} 

object load:713 { 
     name R3-12-47-1_load_17; 
     parent R3-12-47-1_meter_17; 
     phases ABCN; 
     constant_power_A 26654.0815+16209.393j; 
     constant_power_B 26654.0815+16209.393j; 
     constant_power_C 26654.0815+16209.393j; 
     nominal_voltage 480; 
     load_class C; 
} 

object load:714 { 
     name R3-12-47-1_load_18; 
     parent R3-12-47-1_meter_18; 
     phases ABCN; 
     constant_power_A 17753.0883+10796.3498j; 
     constant_power_B 17753.0883+10796.3498j; 
     constant_power_C 17753.0883+10796.3498j; 
     nominal_voltage 480; 
     load_class C; 
} 

object load:715 { 
     name R3-12-47-1_load_19; 
     parent R3-12-47-1_meter_19; 
     phases ABCN; 
     constant_power_A 35524.8816+21604.0747j; 
     constant_power_B 35524.8816+21604.0747j; 
     constant_power_C 35524.8816+21604.0747j; 
     nominal_voltage 480; 
     load_class C; 
} 

object load:716 { 
     name R3-12-47-1_load_20; 
     parent R3-12-47-1_meter_20; 
     phases ABCN; 
     constant_power_A 8870.8214+5394.6946j; 
     constant_power_B 8870.8214+5394.6946j; 
     constant_power_C 8870.8214+5394.6946j; 
     nominal_voltage 480; 
     load_class C; 
} 

object load:717 { 
     name R3-12-47-1_load_21; 
     parent R3-12-47-1_meter_21; 
     phases ABN; 
     constant_power_A 4435.4107+2697.3473j; 
     constant_power_B 4435.4107+2697.3473j; 
     nominal_voltage 480; 
     load_class C; 
} 

object load:718 { 
     name R3-12-47-1_load_22; 
     parent R3-12-47-1_meter_22; 
     phases ABCN; 
     constant_power_A 1754.5987+1067.0403j; 
     constant_power_B 0+0j; 
     constant_power_C 1754.5987+1067.0403j; 
     nominal_voltage 480; 
     load_class C; 
} 

object load:719 { 
     name R3-12-47-1_load_23; 
     parent R3-12-47-1_meter_23; 
     phases ABCN; 
     constant_power_A 8870.8214+5394.6946j; 
     constant_power_B 8870.8214+5394.6946j; 
     constant_power_C 8870.8214+5394.6946j; 
     nominal_voltage 480; 
     load_class C; 
} 

object load:720 { 
     name R3-12-47-1_load_24; 
     parent R3-12-47-1_meter_24; 
     phases ABCN; 
     constant_power_A 1754.5987+1067.0403j; 
     constant_power_B 1754.5987+1067.0403j; 
     constant_power_C 1754.5987+1067.0403j; 
     nominal_voltage 480; 
     load_class C; 
} 

object load:721 { 
     name R3-12-47-1_load_25; 
     parent R3-12-47-1_meter_25; 
     phases ABCN; 
     constant_power_A 0+0j; 
     constant_power_B 17753.0883+10796.3498j; 
     constant_power_C 17753.0883+10796.3498j; 
     nominal_voltage 480; 
     load_class C; 
} 

object load:722 { 
     name R3-12-47-1_load_26; 
     parent R3-12-47-1_meter_26; 
     phases ABCN; 
     constant_power_A 34000+21100j; 
     constant_power_B 34000+21100j; 
     constant_power_C 34000+21100j; 
     nominal_voltage 480; 
     load_class C; 
} 

object load:723 { 
     name R3-12-47-1_load_27; 
     parent R3-12-47-1_meter_27; 
     phases ACN; 
     constant_power_A 4435.4107+2697.3473j; 
     constant_power_C 4435.4107+2697.3473j; 
     nominal_voltage 480; 
     load_class C; 
} 

object load:724 { 
     name R3-12-47-1_load_28; 
     parent R3-12-47-1_meter_28; 
     phases ABCN; 
     constant_power_A 8870.8214+5394.6946j; 
     constant_power_B 8870.8214+5394.6946j; 
     constant_power_C 8870.8214+5394.6946j; 
     nominal_voltage 480; 
     load_class C; 
} 

object load:725 { 
     name R3-12-47-1_load_29; 
     parent R3-12-47-1_meter_29; 
     phases ABCN; 
     constant_power_A 26654.0815+16209.393j; 
     constant_power_B 26654.0815+16209.393j; 
     constant_power_C 26654.0815+16209.393j; 
     nominal_voltage 480; 
     load_class C; 
} 

object load:726 { 
     name R3-12-47-1_load_30; 
     parent R3-12-47-1_meter_30; 
     phases ABCN; 
     constant_power_A 17753.0883+10796.3498j; 
     constant_power_B 17753.0883+10796.3498j; 
     constant_power_C 17753.0883+10796.3498j; 
     nominal_voltage 480; 
     load_class C; 
} 

object load:727 { 
     name R3-12-47-1_load_31; 
     parent R3-12-47-1_meter_31; 
     phases ABCN; 
     constant_power_A 8870.8214+5394.6946j; 
     constant_power_B 8870.8214+5394.6946j; 
     constant_power_C 8870.8214+5394.6946j; 
     nominal_voltage 480; 
     load_class C; 
} 

object load:728 { 
     name R3-12-47-1_load_32; 
     parent R3-12-47-1_meter_32; 
     phases ABCN; 
     constant_power_A 17753.0883+10796.3498j; 
     constant_power_B 17753.0883+10796.3498j; 
     constant_power_C 17753.0883+10796.3498j; 
     nominal_voltage 480; 
     load_class C; 
} 

object load:729 { 
     name R3-12-47-1_load_33; 
     parent R3-12-47-1_meter_33; 
     phases ABN; 
     constant_power_A 4435.4107+2697.3473j; 
     constant_power_B 4435.4107+2697.3473j; 
     nominal_voltage 480; 
     load_class C; 
} 

object load:730 { 
     name R3-12-47-1_load_34; 
     parent R3-12-47-1_meter_34; 
     phases ABCN; 
     constant_power_A 8870.8214+5394.6946j; 
     constant_power_B 8870.8214+5394.6946j; 
     constant_power_C 8870.8214+5394.6946j; 
     nominal_voltage 480; 
     load_class C; 
} 

object load:731 { 
     name R3-12-47-1_load_35; 
     parent R3-12-47-1_meter_35; 
     phases ABCN;  
     constant_power_A 8870.8214+5394.6946j; 
     constant_power_B 8870.8214+5394.6946j; 
     constant_power_C 8870.8214+5394.6946j; 
     nominal_voltage 480; 
     load_class C; 
} 

object load:732 { 
     name R3-12-47-1_load_36; 
     parent R3-12-47-1_meter_36; 
     phases ABCN; 
     constant_power_A 7097.4996+4316.2681j; 
     constant_power_B 7097.4996+4316.2681j; 
     constant_power_C 7097.4996+4316.2681j; 
     nominal_voltage 480; 
     load_class C; 
} 

object load:733 { 
     name R3-12-47-1_load_37; 
     parent R3-12-47-1_meter_37; 
     phases ABCN; 
     constant_power_A 17753.0883+10796.3498j; 
     constant_power_B 17753.0883+10796.3498j; 
     constant_power_C 17753.0883+10796.3498j; 
     nominal_voltage 480; 
     load_class C; 
} 

object load:734 { 
     name R3-12-47-1_load_38; 
     parent R3-12-47-1_meter_38; 
     phases ABCN; 
     constant_power_A 4435.4107+2697.3473j; 
     constant_power_B 4435.4107+2697.3473j; 
     constant_power_C 0+0j; 
     nominal_voltage 480; 
     load_class C; 
} 

object load:735 { 
     name R3-12-47-1_load_39; 
     parent R3-12-47-1_meter_39; 
     phases ABCN; 
     constant_power_A 5342.9021+3249.2285j; 
     constant_power_B 5342.9021+3249.2285j; 
     constant_power_C 5342.9021+3249.2285j; 
     nominal_voltage 480; 
     load_class C; 
} 

object load:736 { 
     name R3-12-47-1_load_40; 
     parent R3-12-47-1_meter_40; 
     phases ABCN; 
     constant_power_A 10000+6200j; 
     constant_power_B 10000+6200j; 
     constant_power_C 10000+6200j; 
     nominal_voltage 480; 
     load_class C; 
} 

object load:737 { 
     name R3-12-47-1_load_41; 
     parent R3-12-47-1_meter_41; 
     phases ABCN;  
     constant_power_A 0+0j; 
     constant_power_B 6653.1157+4046.0208j; 
     constant_power_C 6653.1157+4046.0208j; 
     nominal_voltage 480; 
     load_class C; 
} 

object load:738 { 
     name R3-12-47-1_load_42; 
     parent R3-12-47-1_meter_42; 
     phases ABCN; 
     constant_power_A 2680.8216+1630.3128j; 
     constant_power_B 0+0j; 
     constant_power_C 2680.8216+1630.3128j; 
     nominal_voltage 480; 
     load_class C; 
} 

object load:739 { 
     name R3-12-47-1_load_43; 
     parent R3-12-47-1_meter_43; 
     phases ABCN; 
     constant_power_A 35524.8816+21604.0747j; 
     constant_power_B 35524.8816+21604.0747j; 
     constant_power_C 35524.8816+21604.0747j; 
     nominal_voltage 480; 
     load_class C; 
} 

object load:740 { 
     name R3-12-47-1_load_44; 
     parent R3-12-47-1_meter_44; 
     phases ABCN; 
     constant_power_A 35524.8816+21604.0747j; 
     constant_power_B 35524.8816+21604.0747j; 
     constant_power_C 35524.8816+21604.0747j; 
     nominal_voltage 480; 
     load_class C; 
} 

object load:741 { 
     name R3-12-47-1_load_45; 
     parent R3-12-47-1_meter_45; 
     phases ABCN; 
     constant_power_A 17700+10900j; 
     constant_power_B 17700+10900j; 
     constant_power_C 17700+10900j; 
     nominal_voltage 480; 
     load_class C; 
} 

object load:742 { 
     name R3-12-47-1_load_46; 
     parent R3-12-47-1_meter_46; 
     phases ABCN; 
     constant_power_A 1754.5987+1067.0403j; 
     constant_power_B 0+0j; 
     constant_power_C 1754.5987+1067.0403j; 
     nominal_voltage 480; 
     load_class C; 
} 

object load:743 { 
     name R3-12-47-1_load_47; 
     parent R3-12-47-1_meter_47; 
     phases ABCN; 
     constant_power_A 26654.0815+16209.393j; 
     constant_power_B 26654.0815+16209.393j; 
     constant_power_C 26654.0815+16209.393j; 
     nominal_voltage 480; 
     load_class C; 
} 

object load:744 { 
     name R3-12-47-1_load_48; 
     parent R3-12-47-1_meter_48; 
     phases ABCN; 
     constant_power_A 17753.0883+10796.3498j; 
     constant_power_B 17753.0883+10796.3498j; 
     constant_power_C 17753.0883+10796.3498j; 
     nominal_voltage 480; 
     load_class C; 
} 

object load:745 { 
     name R3-12-47-1_load_49; 
     parent R3-12-47-1_meter_49; 
     phases ABCN; 
     constant_power_A 35524.8816+21604.0747j; 
     constant_power_B 35524.8816+21604.0747j; 
     constant_power_C 35524.8816+21604.0747j; 
     nominal_voltage 480; 
     load_class C; 
} 

object load:746 { 
     name R3-12-47-1_load_50; 
     parent R3-12-47-1_meter_50; 
     phases ABCN; 
     constant_power_A 17753.0883+10796.3498j; 
     constant_power_B 17753.0883+10796.3498j; 
     constant_power_C 17753.0883+10796.3498j; 
     nominal_voltage 480; 
     load_class C; 
} 

object load:747 { 
     name R3-12-47-1_load_51; 
     parent R3-12-47-1_meter_51; 
     phases ABCN; 
     constant_power_A 17753.0883+10796.3498j; 
     constant_power_B 17753.0883+10796.3498j; 
     constant_power_C 17753.0883+10796.3498j; 
     nominal_voltage 480; 
     load_class C; 
} 

object load:748 { 
     name R3-12-47-1_load_52; 
     parent R3-12-47-1_meter_52; 
     phases ABCN; 
     constant_power_A 8870.8214+5394.6946j; 
     constant_power_B 8870.8214+5394.6946j; 
     constant_power_C 8870.8214+5394.6946j; 
     nominal_voltage 480; 
     load_class C; 
} 

object load:749 { 
     name R3-12-47-1_load_53; 
     parent R3-12-47-1_meter_53; 
     phases ABCN; 
     constant_power_A 97300+60300j; 
     constant_power_B 97300+60300j; 
     constant_power_C 97300+60300j; 
     nominal_voltage 480; 
     load_class C; 
} 

object load:750 { 
     name R3-12-47-1_load_54; 
     parent R3-12-47-1_meter_54; 
     phases ABCN; 
     constant_power_A 7688.5948+4675.7362j; 
     constant_power_B 7688.5948+4675.7362j; 
     constant_power_C 7688.5948+4675.7362j; 
     nominal_voltage 480; 
     load_class C; 
} 

object load:751 { 
     name R3-12-47-1_load_55; 
     parent R3-12-47-1_meter_55; 
     phases ABCN; 
     constant_power_A 8870.8214+5394.6946j; 
     constant_power_B 8870.8214+5394.6946j; 
     constant_power_C 8870.8214+5394.6946j; 
     nominal_voltage 480; 
     load_class C; 
} 

object load:752 { 
     name R3-12-47-1_load_56; 
     parent R3-12-47-1_meter_56; 
     phases ABCN; 
     constant_power_A 26654.0815+16209.393j; 
     constant_power_B 26654.0815+16209.393j; 
     constant_power_C 26654.0815+16209.393j; 
     nominal_voltage 480; 
     load_class C; 
} 

object load:753 { 
     name R3-12-47-1_load_57; 
     parent R3-12-47-1_meter_57; 
     phases ABCN; 
     constant_power_A 8870.8214+5394.6946j; 
     constant_power_B 8870.8214+5394.6946j; 
     constant_power_C 8870.8214+5394.6946j; 
     nominal_voltage 480; 
     load_class C; 
} 

object load:754 { 
     name R3-12-47-1_load_58; 
     parent R3-12-47-1_meter_58; 
     phases ABCN; 
     constant_power_A 116700+72300j; 
     constant_power_B 116700+72300j; 
     constant_power_C 116700+72300j; 
     nominal_voltage 480; 
     load_class C; 
} 

object load:755 { 
     name R3-12-47-1_load_59; 
     parent R3-12-47-1_meter_59; 
     phases ABCN; 
     constant_power_A 92300+57200j; 
     constant_power_B 92300+57200j; 
     constant_power_C 92300+57200j; 
     nominal_voltage 480; 
     load_class R; 
} 

object load:756 { 
     name R3-12-47-1_load_60; 
     parent R3-12-47-1_meter_60; 
     phases ABCN; 
     constant_power_A 21800+13500j; 
     constant_power_B 21800+13500j; 
     constant_power_C 21800+13500j; 
     nominal_voltage 480; 
     load_class R; 
} 

object load:757 { 
     name R3-12-47-1_load_61; 
     parent R3-12-47-1_meter_61; 
     phases ABCN; 
     constant_power_A 412000+255400j; 
     constant_power_B 412000+255400j; 
     constant_power_C 412000+255400j; 
     nominal_voltage 480; 
     load_class R; 
} 

object load:758 { 
     name R3-12-47-1_load_62; 
     parent R3-12-47-1_meter_62; 
     phases ABCN; 
     constant_power_A 1266700+785300j; 
     constant_power_B 1266700+785300j; 
     constant_power_C 1266700+785300j; 
     nominal_voltage 480; 
     load_class R; 
} 

object load:759 { 
     name R3-12-47-1_load_63; 
     parent R3-12-47-1_meter_63; 
     phases ABCN; 
     constant_power_A 50000+31000j; 
     constant_power_B 50000+31000j; 
     constant_power_C 50000+31000j; 
     nominal_voltage 480; 
     load_class R; 
} 

object load:760 { 
     name R3-12-47-1_load_64; 
     parent R3-12-47-1_meter_64; 
     phases ABCN; 
     constant_power_A 122700+76000j; 
     constant_power_B 122700+76000j; 
     constant_power_C 122700+76000j; 
     nominal_voltage 480; 
     load_class C; 
} 

object meter:1985 { 
     name R3-12-47-1_meter_1; 
     phases ABCN; 
     nominal_voltage 480; 
} 

object meter:1986 { 
     name R3-12-47-1_meter_2; 
     phases ABCN;  
     nominal_voltage 480; 
} 

object meter:1987 { 
     name R3-12-47-1_meter_3; 
     phases ABCN; 
     nominal_voltage 480; 
} 

object meter:1988 { 
     name R3-12-47-1_meter_4; 
     phases ABCN; 
     nominal_voltage 480; 
} 

object meter:1989 { 
     name R3-12-47-1_meter_5; 
     phases ABCN; 
     nominal_voltage 480; 
} 

object meter:1990 { 
     name R3-12-47-1_meter_6; 
     phases ABCN; 
     nominal_voltage 480; 
} 

object meter:1991 { 
     name R3-12-47-1_meter_7; 
     phases ABCN; 
     nominal_voltage 480; 
} 

object meter:1992 { 
     name R3-12-47-1_meter_8; 
     phases ABCN; 
     nominal_voltage 480; 
} 

object meter:1993 { 
     name R3-12-47-1_meter_9; 
     phases ABCN;  
     nominal_voltage 480; 
} 

object meter:1994 { 
     name R3-12-47-1_meter_10; 
     phases ABCN; 
     nominal_voltage 480; 
} 

object meter:1995 { 
     name R3-12-47-1_meter_11; 
     phases BCN;  
     nominal_voltage 480; 
} 

object meter:1996 { 
     name R3-12-47-1_meter_12; 
     phases ACN; 
     nominal_voltage 480; 
} 

object meter:1997 { 
     name R3-12-47-1_meter_13; 
     phases ABCN; 
     nominal_voltage 480; 
} 

object meter:1998 { 
     name R3-12-47-1_meter_14; 
     phases ABCN; 
     nominal_voltage 480; 
} 

object meter:1999 { 
     name R3-12-47-1_meter_15; 
     phases ABCN; 
     nominal_voltage 480; 
} 

object meter:2000 { 
     name R3-12-47-1_meter_16; 
     phases ABCN; 
     nominal_voltage 480; 
} 

object meter:2001 { 
     name R3-12-47-1_meter_17; 
     phases ABCN; 
     nominal_voltage 480; 
} 

object meter:2002 { 
     name R3-12-47-1_meter_18; 
     phases ABCN; 
     nominal_voltage 480; 
} 

object meter:2003 { 
     name R3-12-47-1_meter_19; 
     phases ABCN;  
     nominal_voltage 480; 
} 

object meter:2004 { 
     name R3-12-47-1_meter_20; 
     phases ABCN; 
     nominal_voltage 480; 
} 

object meter:2005 { 
     name R3-12-47-1_meter_21; 
     phases ABN;  
     nominal_voltage 480; 
} 

object meter:2006 { 
     name R3-12-47-1_meter_22; 
     phases ABCN; 
     nominal_voltage 480; 
} 

object meter:2007 { 
     name R3-12-47-1_meter_23; 
     phases ABCN; 
     nominal_voltage 480; 
} 

object meter:2008 { 
     name R3-12-47-1_meter_24; 
     phases ABCN; 
     nominal_voltage 480; 
} 

object meter:2009 { 
     name R3-12-47-1_meter_25; 
     phases ABCN; 
     nominal_voltage 480; 
} 

object meter:2010 { 
     name R3-12-47-1_meter_26; 
     phases ABCN; 
     nominal_voltage 480; 
} 

object meter:2011 { 
     name R3-12-47-1_meter_27; 
     phases ACN; 
     nominal_voltage 480; 
} 

object meter:2012 { 
     name R3-12-47-1_meter_28; 
     phases ABCN; 
     nominal_voltage 480; 
} 

object meter:2013 { 
     name R3-12-47-1_meter_29; 
     phases ABCN; 
     nominal_voltage 480; 
} 

object meter:2014 { 
     name R3-12-47-1_meter_30; 
     phases ABCN; 
     nominal_voltage 480; 
} 

object meter:2015 { 
     name R3-12-47-1_meter_31; 
     phases ABCN; 
     nominal_voltage 480; 
} 

object meter:2016 { 
     name R3-12-47-1_meter_32; 
     phases ABCN; 
     nominal_voltage 480; 
} 

object meter:2017 { 
     name R3-12-47-1_meter_33; 
     phases ABN; 
     nominal_voltage 480; 
} 

object meter:2018 { 
     name R3-12-47-1_meter_34; 
     phases ABCN; 
     nominal_voltage 480; 
} 

object meter:2019 { 
     name R3-12-47-1_meter_35; 
     phases ABCN; 
     nominal_voltage 480; 
} 

object meter:2020 { 
     name R3-12-47-1_meter_36; 
     phases ABCN; 
     nominal_voltage 480; 
} 

object meter:2021 { 
     name R3-12-47-1_meter_37; 
     phases ABCN; 
     nominal_voltage 480; 
} 

object meter:2022 { 
     name R3-12-47-1_meter_38; 
     phases ABCN; 
     nominal_voltage 480; 
} 

object meter:2023 { 
     name R3-12-47-1_meter_39; 
     phases ABCN; 
     nominal_voltage 480; 
} 

object meter:2024 { 
     name R3-12-47-1_meter_40; 
     phases ABCN; 
     nominal_voltage 480; 
} 

object meter:2025 { 
     name R3-12-47-1_meter_41; 
     phases ABCN;  
     nominal_voltage 480; 
} 

object meter:2026 { 
     name R3-12-47-1_meter_42; 
     phases ABCN; 
     nominal_voltage 480; 
} 

object meter:2027 { 
     name R3-12-47-1_meter_43; 
     phases ABCN; 
     nominal_voltage 480; 
} 

object meter:2028 { 
     name R3-12-47-1_meter_44; 
     phases ABCN; 
     nominal_voltage 480; 
} 

object meter:2029 { 
     name R3-12-47-1_meter_45; 
     phases ABCN; 
     nominal_voltage 480; 
} 

object meter:2030 { 
     name R3-12-47-1_meter_46; 
     phases ABCN; 
     nominal_voltage 480; 
} 

object meter:2031 { 
     name R3-12-47-1_meter_47; 
     phases ABCN; 
     nominal_voltage 480; 
} 

object meter:2032 { 
     name R3-12-47-1_meter_48; 
     phases ABCN; 
     nominal_voltage 480; 
} 

object meter:2033 { 
     name R3-12-47-1_meter_49; 
     phases ABCN; 
     nominal_voltage 480; 
} 

object meter:2034 { 
     name R3-12-47-1_meter_50; 
     phases ABCN;  
     nominal_voltage 480; 
} 

object meter:2035 { 
     name R3-12-47-1_meter_51; 
     phases ABCN; 
     nominal_voltage 480; 
} 

object meter:2036 { 
     name R3-12-47-1_meter_52; 
     phases ABCN; 
     nominal_voltage 480; 
} 

object meter:2037 { 
     name R3-12-47-1_meter_53; 
     phases ABCN; 
     nominal_voltage 480; 
} 

object meter:2038 { 
     name R3-12-47-1_meter_54; 
     phases ABCN;  
     nominal_voltage 480; 
} 

object meter:2039 { 
     name R3-12-47-1_meter_55; 
     phases ABCN;  
     nominal_voltage 480; 
} 

object meter:2040 { 
     name R3-12-47-1_meter_56; 
     phases ABCN; 
     nominal_voltage 480; 
} 

object meter:2041 { 
     name R3-12-47-1_meter_57; 
     phases ABCN; 
     nominal_voltage 480; 
} 

object meter:2042 { 
     name R3-12-47-1_meter_58; 
     phases ABCN;  
     nominal_voltage 480; 
} 

object meter:2043 { 
     name R3-12-47-1_meter_59; 
     phases ABCN; 
     nominal_voltage 480; 
} 

object meter:2044 { 
     name R3-12-47-1_meter_60; 
     phases ABCN; 
     nominal_voltage 480; 
} 

object meter:2045 { 
     name R3-12-47-1_meter_61; 
     phases ABCN; 
     nominal_voltage 480; 
} 

object meter:2046 { 
     name R3-12-47-1_meter_62; 
     phases ABCN; 
     nominal_voltage 480; 
} 

object meter:2047 { 
     name R3-12-47-1_meter_63; 
     phases ABCN;  
     nominal_voltage 480; 
} 

object meter:2048 { 
     name R3-12-47-1_meter_64; 
     phases ABCN;  
     nominal_voltage 480; 
} 

// Meter at feeder 
object meter:3652 { 
     name R3-12-47-1_meter_65; 
     phases ABCN; 
     nominal_voltage 7200; 
} 

object node:64 { 
     name R3-12-47-1_node_1; 
     phases ABCN; 
     voltage_A 7200+0.0j; 
     voltage_B -3600-6235j; 
     voltage_C -3600+6235j; 
     nominal_voltage 7200; 
} 

object node:65 { 
     name R3-12-47-1_node_2; 
     phases ABCN; 
     voltage_A 7200+0.0j; 
     voltage_B -3600-6235j; 
     voltage_C -3600+6235j; 
     nominal_voltage 7200; 
} 

object node:66 { 
     name R3-12-47-1_node_3; 
     parent R3-12-47-1_meter_65; 
     phases ABCN; 
     voltage_A 7200+0.0j; 
     voltage_B -3600-6235j; 
     voltage_C -3600+6235j; 
     nominal_voltage 7200; 
} 

object node:67 { 
     name R3-12-47-1_node_4; 
     phases ABCN; 
     voltage_A 7200+0.0j; 
     voltage_B -3600-6235j; 
     voltage_C -3600+6235j; 
     nominal_voltage 7200; 
} 

object node:68 { 
     name R3-12-47-1_node_5; 
     phases ABCN; 
     voltage_A 7200+0.0j; 
     voltage_B -3600-6235j; 
     voltage_C -3600+6235j; 
     nominal_voltage 7200; 
} 

object node:69 { 
     name R3-12-47-1_node_6; 
     phases ABCN; 
     voltage_A 7200+0.0j; 
     voltage_B -3600-6235j; 
     voltage_C -3600+6235j; 
     nominal_voltage 7200; 
} 

object node:70 { 
     name R3-12-47-1_node_7; 
     phases ABCN; 
     voltage_A 7200+0.0j; 
     voltage_B -3600-6235j; 
     voltage_C -3600+6235j; 
     nominal_voltage 7200; 
} 

object node:71 { 
     name R3-12-47-1_node_8; 
     phases ABCN; 
     voltage_A 7200+0.0j; 
     voltage_B -3600-6235j; 
     voltage_C -3600+6235j; 
     nominal_voltage 7200; 
} 

object node:72 { 
     name R3-12-47-1_node_9; 
     phases ABCN; 
     voltage_A 7200+0.0j; 
     voltage_B -3600-6235j; 
     voltage_C -3600+6235j; 
     nominal_voltage 7200; 
} 

object node:73 { 
     name R3-12-47-1_node_10; 
     phases ABCN; 
     voltage_A 7200+0.0j; 
     voltage_B -3600-6235j; 
     voltage_C -3600+6235j; 
     nominal_voltage 7200; 
} 

object node:74 { 
     name R3-12-47-1_node_11; 
     phases ABCN; 
     voltage_A 7200+0.0j; 
     voltage_B -3600-6235j; 
     voltage_C -3600+6235j; 
     nominal_voltage 7200; 
} 

object node:75 { 
     name R3-12-47-1_node_12; 
     phases ABCN; 
     voltage_A 7200+0.0j; 
     voltage_B -3600-6235j; 
     voltage_C -3600+6235j; 
     nominal_voltage 7200; 
} 

object node:76 { 
     name R3-12-47-1_node_13; 
     phases ABCN; 
     voltage_A 7200+0.0j; 
     voltage_B -3600-6235j; 
     voltage_C -3600+6235j; 
     nominal_voltage 7200; 
} 

object node:77 { 
     name R3-12-47-1_node_14; 
     phases ABCN; 
     voltage_A 7200+0.0j; 
     voltage_B -3600-6235j; 
     voltage_C -3600+6235j; 
     nominal_voltage 7200; 
} 

object node:78 { 
     name R3-12-47-1_node_15; 
     phases ABCN; 
     voltage_A 7200+0.0j; 
     voltage_B -3600-6235j; 
     voltage_C -3600+6235j; 
     nominal_voltage 7200; 
} 

object node:79 { 
     name R3-12-47-1_node_16; 
     phases ABCN; 
     voltage_A 7200+0.0j; 
     voltage_B -3600-6235j; 
     voltage_C -3600+6235j; 
     nominal_voltage 7200; 
} 

object node:80 { 
     name R3-12-47-1_node_17; 
     phases ABCN; 
     voltage_A 7200+0.0j; 
     voltage_B -3600-6235j; 
     voltage_C -3600+6235j; 
     nominal_voltage 7200; 
} 

object node:81 { 
     name R3-12-47-1_node_18; 
     phases ABCN; 
     voltage_A 7200+0.0j; 
     voltage_B -3600-6235j; 
     voltage_C -3600+6235j; 
     nominal_voltage 7200; 
} 

object node:82 { 
     name R3-12-47-1_node_19; 
     phases ABCN; 
     voltage_A 7200+0.0j; 
     voltage_B -3600-6235j; 
     voltage_C -3600+6235j; 
     nominal_voltage 7200; 
} 

object node:83 { 
     name R3-12-47-1_node_20; 
     phases ABCN; 
     voltage_A 7200+0.0j; 
     voltage_B -3600-6235j; 
     voltage_C -3600+6235j; 
     nominal_voltage 7200; 
} 

object node:84 { 
     name R3-12-47-1_node_21; 
     phases ABCN; 
     voltage_A 7200+0.0j; 
     voltage_B -3600-6235j; 
     voltage_C -3600+6235j; 
     nominal_voltage 7200; 
} 

object node:85 { 
     name R3-12-47-1_node_22; 
     phases ABCN; 
     voltage_A 7200+0.0j; 
     voltage_B -3600-6235j; 
     voltage_C -3600+6235j; 
     nominal_voltage 7200; 
} 

object node:86 { 
     name R3-12-47-1_node_23; 
     phases ABCN; 
     voltage_A 7200+0.0j; 
     voltage_B -3600-6235j; 
     voltage_C -3600+6235j; 
     nominal_voltage 7200; 
} 

object node:87 { 
     name R3-12-47-1_node_24; 
     phases ABCN; 
     voltage_A 7200+0.0j; 
     voltage_B -3600-6235j; 
     voltage_C -3600+6235j; 
     nominal_voltage 7200; 
} 

object node:88 { 
     name R3-12-47-1_node_25; 
     phases ABCN; 
     voltage_A 7200+0.0j; 
     voltage_B -3600-6235j; 
     voltage_C -3600+6235j; 
     nominal_voltage 7200; 
} 

object node:89 { 
     name R3-12-47-1_node_26; 
     phases ABCN; 
     voltage_A 7200+0.0j; 
     voltage_B -3600-6235j; 
     voltage_C -3600+6235j; 
     nominal_voltage 7200; 
} 

object node:90 { 
     name R3-12-47-1_node_27; 
     phases ACN; 
     voltage_A 7200+0.0j; 
     voltage_C -3600+6235j; 
     nominal_voltage 7200; 
} 

object node:91 { 
     name R3-12-47-1_node_28; 
     phases ABCN; 
     voltage_A 7200+0.0j; 
     voltage_B -3600-6235j; 
     voltage_C -3600+6235j; 
     nominal_voltage 7200; 
} 

object node:92 { 
     name R3-12-47-1_node_29; 
     phases ABCN; 
     voltage_A 7200+0.0j; 
     voltage_B -3600-6235j; 
     voltage_C -3600+6235j; 
     nominal_voltage 7200; 
} 

object node:93 { 
     name R3-12-47-1_node_30; 
     phases ABCN; 
     voltage_A 7200+0.0j; 
     voltage_B -3600-6235j; 
     voltage_C -3600+6235j; 
     nominal_voltage 7200; 
} 

object node:94 { 
     name R3-12-47-1_node_31; 
     phases ABCN; 
     voltage_A 7200+0.0j; 
     voltage_B -3600-6235j; 
     voltage_C -3600+6235j; 
     nominal_voltage 7200; 
} 

object node:95 { 
     name R3-12-47-1_node_32; 
     phases ABCN; 
     voltage_A 7200+0.0j; 
     voltage_B -3600-6235j; 
     voltage_C -3600+6235j; 
     nominal_voltage 7200; 
} 

object node:96 { 
     name R3-12-47-1_node_33; 
     phases ABCN; 
     voltage_A 7200+0.0j; 
     voltage_B -3600-6235j; 
     voltage_C -3600+6235j; 
     nominal_voltage 7200; 
} 

object node:97 { 
     name R3-12-47-1_node_34; 
     phases ABCN; 
     voltage_A 7200+0.0j; 
     voltage_B -3600-6235j; 
     voltage_C -3600+6235j; 
     nominal_voltage 7200; 
} 

object node:98 { 
     name R3-12-47-1_node_35; 
     phases ABCN; 
     voltage_A 7200+0.0j; 
     voltage_B -3600-6235j; 
     voltage_C -3600+6235j; 
     nominal_voltage 7200; 
} 

object node:99 { 
     name R3-12-47-1_node_36; 
     phases ABCN; 
     voltage_A 7200+0.0j; 
     voltage_B -3600-6235j; 
     voltage_C -3600+6235j; 
     nominal_voltage 7200; 
} 

object node:100 { 
     name R3-12-47-1_node_37; 
     phases ABCN; 
     voltage_A 7200+0.0j; 
     voltage_B -3600-6235j; 
     voltage_C -3600+6235j; 
     nominal_voltage 7200; 
} 

object node:101 { 
     name R3-12-47-1_node_38; 
     phases ABCN; 
     voltage_A 7200+0.0j; 
     voltage_B -3600-6235j; 
     voltage_C -3600+6235j; 
     nominal_voltage 7200; 
} 

object node:102 { 
     name R3-12-47-1_node_39; 
     phases ABCN; 
     voltage_A 7200+0.0j; 
     voltage_B -3600-6235j; 
     voltage_C -3600+6235j; 
     nominal_voltage 7200; 
} 

object node:103 { 
     name R3-12-47-1_node_40; 
     phases ABCN; 
     voltage_A 7200+0.0j; 
     voltage_B -3600-6235j; 
     voltage_C -3600+6235j; 
     nominal_voltage 7200; 
} 

object node:104 { 
     name R3-12-47-1_node_41; 
     phases ABCN; 
     voltage_A 7200+0.0j; 
     voltage_B -3600-6235j; 
     voltage_C -3600+6235j; 
     nominal_voltage 7200; 
} 

object node:105 { 
     name R3-12-47-1_node_42; 
     phases ABCN; 
     voltage_A 7200+0.0j; 
     voltage_B -3600-6235j; 
     voltage_C -3600+6235j; 
     nominal_voltage 7200; 
} 

object node:106 { 
     name R3-12-47-1_node_43; 
     phases ABCN; 
     voltage_A 7200+0.0j; 
     voltage_B -3600-6235j; 
     voltage_C -3600+6235j; 
     nominal_voltage 7200; 
} 

object node:107 { 
     name R3-12-47-1_node_44; 
     phases BN; 
     voltage_B -3600-6235j; 
     nominal_voltage 7200; 
} 

object node:108 { 
     name R3-12-47-1_node_45; 
     phases ABCN; 
     voltage_A 7200+0.0j; 
     voltage_B -3600-6235j; 
     voltage_C -3600+6235j; 
     nominal_voltage 7200; 
} 

object node:109 { 
     name R3-12-47-1_node_46; 
     phases AN; 
     voltage_A 7200+0.0j; 
     nominal_voltage 7200; 
} 

object node:110 { 
     name R3-12-47-1_node_47; 
     phases ABN; 
     voltage_A 7200+0.0j; 
     voltage_B -3600-6235j; 
     nominal_voltage 7200; 
} 

object node:111 { 
     name R3-12-47-1_node_48; 
     phases CN; 
     voltage_C -3600+6235j; 
     nominal_voltage 7200; 
} 

object node:112 { 
     name R3-12-47-1_node_49; 
     phases CN; 
     voltage_C -3600+6235j; 
     nominal_voltage 7200; 
} 

object node:113 { 
     name R3-12-47-1_node_50; 
     phases ABCN; 
     voltage_A 7200+0.0j; 
     voltage_B -3600-6235j; 
     voltage_C -3600+6235j; 
     nominal_voltage 7200; 
} 

object node:114 { 
     name R3-12-47-1_node_51; 
     phases ABCN; 
     voltage_A 7200+0.0j; 
     voltage_B -3600-6235j; 
     voltage_C -3600+6235j; 
     nominal_voltage 7200; 
} 

object node:115 { 
     name R3-12-47-1_node_52; 
     phases ABCN; 
     voltage_A 7200+0.0j; 
     voltage_B -3600-6235j; 
     voltage_C -3600+6235j; 
     nominal_voltage 7200; 
} 

object node:116 { 
     name R3-12-47-1_node_53; 
     phases ABCN; 
     voltage_A 7200+0.0j; 
     voltage_B -3600-6235j; 
     voltage_C -3600+6235j; 
     nominal_voltage 7200; 
} 

object node:117 { 
     name R3-12-47-1_node_54; 
     phases ABCN; 
     voltage_A 7200+0.0j; 
     voltage_B -3600-6235j; 
     voltage_C -3600+6235j; 
     nominal_voltage 7200; 
} 

object node:118 { 
     name R3-12-47-1_node_55; 
     phases ABCN; 
     voltage_A 7200+0.0j; 
     voltage_B -3600-6235j; 
     voltage_C -3600+6235j; 
     nominal_voltage 7200; 
} 

object node:119 { 
     name R3-12-47-1_node_56; 
     phases BN; 
     voltage_B -3600-6235j; 
     nominal_voltage 7200; 
} 

object node:120 { 
     name R3-12-47-1_node_57; 
     phases ABCN; 
     voltage_A 7200+0.0j; 
     voltage_B -3600-6235j; 
     voltage_C -3600+6235j; 
     nominal_voltage 7200; 
} 

object node:121 { 
     name R3-12-47-1_node_58; 
     phases AN; 
     voltage_A 7200+0.0j; 
     nominal_voltage 7200; 
} 

object node:122 { 
     name R3-12-47-1_node_59; 
     phases AN; 
     voltage_A 7200+0.0j; 
     nominal_voltage 7200; 
} 

object node:123 { 
     name R3-12-47-1_node_60; 
     phases ABCN; 
     voltage_A 7200+0.0j; 
     voltage_B -3600-6235j; 
     voltage_C -3600+6235j; 
     nominal_voltage 7200; 
} 

object node:124 { 
     name R3-12-47-1_node_61; 
     phases ABCN; 
     voltage_A 7200+0.0j; 
     voltage_B -3600-6235j; 
     voltage_C -3600+6235j; 
     nominal_voltage 7200; 
} 

object node:125 { 
     name R3-12-47-1_node_62; 
     phases BN; 
     voltage_B -3600-6235j; 
     nominal_voltage 7200; 
} 

object node:126 { 
     name R3-12-47-1_node_63; 
     phases AN; 
     voltage_A 7200+0.0j; 
     nominal_voltage 7200; 
} 

object node:127 { 
     name R3-12-47-1_node_64; 
     phases CN; 
     voltage_C -3600+6235j; 
     nominal_voltage 7200; 
} 

object node:128 { 
     name R3-12-47-1_node_65; 
     phases CN; 
     voltage_C -3600+6235j; 
     nominal_voltage 7200; 
} 

object node:129 { 
     name R3-12-47-1_node_66; 
     phases ABCN; 
     voltage_A 7200+0.0j; 
     voltage_B -3600-6235j; 
     voltage_C -3600+6235j; 
     nominal_voltage 7200; 
} 

object node:130 { 
     name R3-12-47-1_node_67; 
     phases ABCN; 
     voltage_A 7200+0.0j; 
     voltage_B -3600-6235j; 
     voltage_C -3600+6235j; 
     nominal_voltage 7200; 
} 

object node:131 { 
     name R3-12-47-1_node_68; 
     phases ABCN; 
     voltage_A 7200+0.0j; 
     voltage_B -3600-6235j; 
     voltage_C -3600+6235j; 
     nominal_voltage 7200; 
} 

object node:132 { 
     name R3-12-47-1_node_69; 
     phases ABCN; 
     voltage_A 7200+0.0j; 
     voltage_B -3600-6235j; 
     voltage_C -3600+6235j; 
     nominal_voltage 7200; 
} 

object node:133 { 
     name R3-12-47-1_node_70; 
     phases ABCN; 
     voltage_A 7200+0.0j; 
     voltage_B -3600-6235j; 
     voltage_C -3600+6235j; 
     nominal_voltage 7200; 
} 

object node:134 { 
     name R3-12-47-1_node_71; 
     phases ABCN; 
     voltage_A 7200+0.0j; 
     voltage_B -3600-6235j; 
     voltage_C -3600+6235j; 
     nominal_voltage 7200; 
} 

object node:135 { 
     name R3-12-47-1_node_72; 
     phases ABCN; 
     voltage_A 7200+0.0j; 
     voltage_B -3600-6235j; 
     voltage_C -3600+6235j; 
     nominal_voltage 7200; 
} 

object node:136 { 
     name R3-12-47-1_node_73; 
     phases ABCN; 
     voltage_A 7200+0.0j; 
     voltage_B -3600-6235j; 
     voltage_C -3600+6235j; 
     nominal_voltage 7200; 
} 

object node:137 { 
     name R3-12-47-1_node_74; 
     phases ABCN; 
     voltage_A 7200+0.0j; 
     voltage_B -3600-6235j; 
     voltage_C -3600+6235j; 
     nominal_voltage 7200; 
} 

object node:138 { 
     name R3-12-47-1_node_75; 
     phases ABCN; 
...